$DATA1 SOURCE='PrimeSim HSPICE' VERSION='U-2023.03-SP2 linux6' PARAM_COUNT=0
.TITLE '*----------------------------------------------------------------------'
 tpdr             tpdf             temper           alter#          
  8.867e-11        6.713e-11         25.0000        1               
